<?xml version="1.0" encoding="UTF-8"?>

<net xmlns:xsi="http://www.w3.org/2001/XMLSchema-instance"
     version="1.20"
     junctionCornerDetail="5"
     limitTurnSpeed="5.50"
     xsi:noNamespaceSchemaLocation="http://sumo.dlr.de/xsd/net_file.xsd">

    <location netOffset="0.00,0.00"
              convBoundary="0.00,-100.00,200.00,100.00"
              origBoundary="10000000000.00,10000000000.00,-10000000000.00,-10000000000.00"
              projParameter="!"/>

    <!-- ===================== EDGES ===================== -->
    <edge id=":J1_0" function="internal">
        <lane id=":J1_0_0" index="0" speed="6.51" length="9.03"
              shape="98.40,7.20 98.05,4.75 97.00,3.00 95.25,1.95 92.80,1.60"/>
    </edge>

    <edge id=":J1_1" function="internal">
        <lane id=":J1_1_0" index="0" speed="13.89" length="14.40"
              shape="98.40,7.20 98.40,-7.20"/>
    </edge>

    <edge id=":J1_2" function="internal">
        <lane id=":J1_2_0" index="0" speed="8.00" length="4.07"
              shape="98.40,7.20 98.95,3.35 99.04,3.20"/>
    </edge>

    <edge id=":J1_12" function="internal">
        <lane id=":J1_12_0" index="0" speed="8.00" length="10.13"
              shape="99.04,3.20 100.60,0.60 103.35,-1.05 107.20,-1.60"/>
    </edge>

    <edge id=":J1_3" function="internal">
        <lane id=":J1_3_0" index="0" speed="6.51" length="9.03"
              shape="107.20,1.60 104.75,1.95 103.00,3.00 101.95,4.75 101.60,7.20"/>
    </edge>

    <edge id=":J1_4" function="internal">
        <lane id=":J1_4_0" index="0" speed="13.89" length="14.40"
              shape="107.20,1.60 92.80,1.60"/>
    </edge>

    <edge id=":J1_5" function="internal">
        <lane id=":J1_5_0" index="0" speed="8.00" length="4.07"
              shape="107.20,1.60 103.35,1.05 103.20,0.96"/>
    </edge>

    <edge id=":J1_13" function="internal">
        <lane id=":J1_13_0" index="0" speed="8.00" length="10.13"
              shape="103.20,0.96 100.60,-0.60 98.95,-3.35 98.40,-7.20"/>
    </edge>

    <edge id=":J1_6" function="internal">
        <lane id=":J1_6_0" index="0" speed="6.51" length="9.03"
              shape="101.60,-7.20 101.95,-4.75 103.00,-3.00 104.75,-1.95 107.20,-1.60"/>
    </edge>

    <edge id=":J1_7" function="internal">
        <lane id=":J1_7_0" index="0" speed="13.89" length="14.40"
              shape="101.60,-7.20 101.60,7.20"/>
    </edge>

    <edge id=":J1_8" function="internal">
        <lane id=":J1_8_0" index="0" speed="8.00" length="4.07"
              shape="101.60,-7.20 101.05,-3.35 100.96,-3.20"/>
    </edge>

    <edge id=":J1_14" function="internal">
        <lane id=":J1_14_0" index="0" speed="8.00" length="10.13"
              shape="100.96,-3.20 99.40,-0.60 96.65,1.05 92.80,1.60"/>
    </edge>

    <edge id=":J1_9" function="internal">
        <lane id=":J1_9_0" index="0" speed="6.51" length="9.03"
              shape="92.80,-1.60 95.25,-1.95 97.00,-3.00 98.05,-4.75 98.40,-7.20"/>
    </edge>

    <edge id=":J1_10" function="internal">
        <lane id=":J1_10_0" index="0" speed="13.89" length="14.40"
              shape="92.80,-1.60 107.20,-1.60"/>
    </edge>

    <edge id=":J1_11" function="internal">
        <lane id=":J1_11_0" index="0" speed="8.00" length="4.07"
              shape="92.80,-1.60 96.65,-1.05 96.80,-0.96"/>
    </edge>

    <!-- ===================== ROADS ===================== -->
    <edge id="-E0" from="J1" to="J0" priority="-1">
        <lane id="-E0_0" index="0" speed="13.89" length="92.80"
              shape="92.80,1.60 0.00,1.60"/>
    </edge>

    <edge id="-E1" from="J2" to="J1" priority="-1">
        <lane id="-E1_0" index="0" speed="13.89" length="92.80"
              shape="200.00,1.60 107.20,1.60"/>
    </edge>

    <edge id="-E2" from="J3" to="J1" priority="-1">
        <lane id="-E2_0" index="0" speed="13.89" length="92.80"
              shape="98.40,100.00 98.40,7.20"/>
    </edge>

    <edge id="-E3" from="J4" to="J1" priority="-1">
        <lane id="-E3_0" index="0" speed="13.89" length="92.80"
              shape="101.60,-100.00 101.60,-7.20"/>
    </edge>

    <edge id="E0" from="J0" to="J1" priority="-1">
        <lane id="E0_0" index="0" speed="13.89" length="92.80"
              shape="0.00,-1.60 92.80,-1.60"/>
    </edge>

    <edge id="E1" from="J1" to="J2" priority="-1">
        <lane id="E1_0" index="0" speed="13.89" length="92.80"
              shape="107.20,-1.60 200.00,-1.60"/>
    </edge>

    <edge id="E2" from="J1" to="J3" priority="-1">
        <lane id="E2_0" index="0" speed="13.89" length="92.80"
              shape="101.60,7.20 101.60,100.00"/>
    </edge>

    <edge id="E3" from="J1" to="J4" priority="-1">
        <lane id="E3_0" index="0" speed="13.89" length="92.80"
              shape="98.40,-7.20 98.40,-100.00"/>
    </edge>

    <!-- ===================== TRAFFIC LIGHT ===================== -->
    <tlLogic id="J1" type="static" programID="0" offset="0">
        <phase duration="30" state="GGgrrrGGgrrr"/>
        <phase duration="3" state="yyyrrryyyrrr"/>
        <phase duration="30" state="rrrGGgrrrGGg"/>
        <phase duration="3" state="rrryyyrrryyy"/>
    </tlLogic>

    <!-- ===================== JUNCTIONS ===================== -->
    <junction id="J0" type="dead_end" x="0.00" y="0.00" incLanes="-E0_0" intLanes=""/>
    <junction id="J1" type="traffic_light" x="100.00" y="0.00"
              incLanes="-E2_0 -E1_0 -E3_0 E0_0"
              intLanes=":J1_0_0 :J1_1_0 :J1_12_0 :J1_3_0 :J1_4_0 :J1_13_0 :J1_6_0 :J1_7_0 :J1_14_0 :J1_9_0 :J1_10_0 :J1_15_0"/>

    <junction id="J2" type="dead_end" x="200.00" y="0.00" incLanes="E1_0" intLanes=""/>
    <junction id="J3" type="dead_end" x="100.00" y="100.00" incLanes="E2_0" intLanes=""/>
    <junction id="J4" type="dead_end" x="100.00" y="-100.00" incLanes="E3_0" intLanes=""/>

</net>