
<?xml version="1.0" encoding="UTF-8"?>

<routes xmlns:xsi="http://www.w3.org/2001/XMLSchema-instance"
        xsi:noNamespaceSchemaLocation="http://sumo.dlr.de/xsd/routes_file.xsd">

    <vType id="car"
           accel="2.6"
           decel="4.5"
           sigma="0.5"
           length="5"
           maxSpeed="13.89"/>

    <!-- From -E1 -->
    <flow id="f1_r" type="car" begin="0" end="3600" probability="0.01" from="-E1" to="E2"/>
    <flow id="f1_s" type="car" begin="0" end="3600" probability="0.06" from="-E1" to="-E0"/>
    <flow id="f1_l" type="car" begin="0" end="3600" probability="0.02" from="-E1" to="E3"/>

    <!-- From -E2 -->
    <flow id="f2_r" type="car" begin="0" end="3600" probability="0.01" from="-E2" to="-E0"/>
    <flow id="f2_s" type="car" begin="0" end="3600" probability="0.02" from="-E2" to="E3"/>
    <flow id="f2_l" type="car" begin="0" end="3600" probability="0.02" from="-E2" to="E1"/>

    <!-- From -E3 -->
    <flow id="f3_r" type="car" begin="0" end="3600" probability="0.02" from="-E3" to="E1"/>
    <flow id="f3_s" type="car" begin="0" end="3600" probability="0.01" from="-E3" to="E2"/>
    <flow id="f3_l" type="car" begin="0" end="3600" probability="0.03" from="-E3" to="-E0"/>

    <!-- From E0 -->
    <flow id="f0_r" type="car" begin="0" end="3600" probability="0.01" from="E0" to="E3"/>
    <flow id="f0_s" type="car" begin="0" end="3600" probability="0.03" from="E0" to="E1"/>
    <flow id="f0_l" type="car" begin="0" end="3600" probability="0.01" from="E0" to="E2"/>

</routes>
>>>>>>> updated
